


 26 29  0  0  0  0  0  0  0  0999 V2000
    5.6676  -25.3954  -13.5870 C   0  0  0  0  0  0  0  0  0  0  0  0
    5.5625  -26.9343  -13.7801 C   0  0  0  0  0  0  0  0  0  0  0  0
    6.4246  -27.6872  -12.7495 C   0  0  0  0  0  0  0  0  0  0  0  0
    7.9307  -27.4265  -13.0086 C   0  0  0  0  0  0  0  0  0  0  0  0
    8.3752  -27.6615  -14.4965 C   0  0  0  0  0  0  0  0  0  0  0  0
    7.3994  -27.0332  -15.5426 C   0  0  0  0  0  0  0  0  0  0  0  0
    5.9635  -27.4407  -15.1692 C   0  0  0  0  0  0  0  0  0  0  0  0
    4.7924  -27.0792  -16.0851 C   0  0  0  0  0  0  0  0  0  0  0  0
    3.5614  -27.3282  -15.1953 C   0  0  0  0  0  0  0  0  0  0  0  0
    4.1089  -27.2728  -13.8014 C   0  0  0  0  0  0  0  0  0  0  0  0
    3.4269  -27.4303  -12.8004 O   0  0  0  0  0  0  0  0  0  0  0  0
    7.7559  -27.5327  -16.9517 C   0  0  0  0  0  0  0  0  0  0  0  0
    9.2323  -27.5153  -17.2359 C   0  0  0  0  0  0  0  0  0  0  0  0
   10.1902  -27.4739  -16.2821 C   0  0  0  0  0  0  0  0  0  0  0  0
    9.8688  -27.2551  -14.7945 C   0  0  0  0  0  0  0  0  0  0  0  0
   10.8146  -28.1548  -13.9388 C   0  0  0  0  0  0  0  0  0  0  0  0
   12.2898  -28.0807  -14.3595 C   0  0  0  0  0  0  0  0  0  0  0  0
   12.4605  -28.4549  -15.8371 C   0  0  0  0  0  0  0  0  0  0  0  0
   11.6446  -27.5041  -16.7172 C   0  0  0  0  0  0  0  0  0  0  0  0
   10.1355  -25.7625  -14.4560 C   0  0  0  0  0  0  0  0  0  0  0  0
   13.8238  -28.3342  -16.1944 O   0  0  0  0  0  0  0  0  0  0  0  0
   14.2851  -29.6246  -17.1978 S   0  0  0  0  0  0  0  0  0  0  0  0
   13.6210  -30.8905  -16.7346 O   0  0  0  0  0  0  0  0  0  0  0  0
   15.7778  -29.8023  -17.1828 O   0  0  0  0  0  0  0  0  0  0  0  0
   13.7888  -29.2954  -18.7687 O   0  0  0  0  0  0  0  0  0  0  0  0
   14.1364  -28.3884  -18.9597 H   0  0  0  0  0  0  0  0  0  0  0  0
  1  2  1  0  0  0
  2  3  1  0  0  0
  2  7  1  0  0  0
  2 10  1  0  0  0
  3  4  1  0  0  0
  4  5  1  0  0  0
  5  6  1  0  0  0
  5 15  1  0  0  0
  6  7  1  0  0  0
  6 12  1  0  0  0
  7  8  1  0  0  0
  8  9  1  0  0  0
  9 10  1  0  0  0
 10 11  2  0  0  0
 12 13  1  0  0  0
 13 14  2  0  0  0
 14 15  1  0  0  0
 14 19  1  0  0  0
 15 16  1  0  0  0
 15 20  1  0  0  0
 16 17  1  0  0  0
 17 18  1  0  0  0
 18 19  1  0  0  0
 18 21  1  0  0  0
 21 22  1  0  0  0
 22 23  2  0  0  0
 22 24  2  0  0  0
 22 25  1  0  0  0
 25 26  1  0  0  0
M  END
> <COMPND>
    ../0-casp/nT856Q.pdb 

> <AUTHOR>
    GENERATED BY OPEN BABEL 3.1.0

> <MASTER>
        0    0    0    0    0    0    0    0   53    0   53    0

> <minimizedAffinity>
-8.07461

> <CNNscore>
0.8451817036

> <CNNaffinity>
5.7403306961

> <CNN_VS>
4.8516225815

> <CNNaffinity_variance>
0.1627033204

$$$$



 26 29  0  0  0  0  0  0  0  0999 V2000
    6.8431  -25.2539  -11.6237 C   0  0  0  0  0  0  0  0  0  0  0  0
    6.3466  -25.9389  -12.9279 C   0  0  0  0  0  0  0  0  0  0  0  0
    6.6268  -27.4532  -12.9055 C   0  0  0  0  0  0  0  0  0  0  0  0
    8.1527  -27.7230  -12.9540 C   0  0  0  0  0  0  0  0  0  0  0  0
    8.9025  -26.9586  -14.1029 C   0  0  0  0  0  0  0  0  0  0  0  0
    8.4859  -25.4576  -14.2249 C   0  0  0  0  0  0  0  0  0  0  0  0
    6.9492  -25.3812  -14.2213 C   0  0  0  0  0  0  0  0  0  0  0  0
    6.2391  -24.0463  -14.4555 C   0  0  0  0  0  0  0  0  0  0  0  0
    4.7933  -24.3359  -14.0142 C   0  0  0  0  0  0  0  0  0  0  0  0
    4.9236  -25.5313  -13.1199 C   0  0  0  0  0  0  0  0  0  0  0  0
    3.9758  -26.0699  -12.5689 O   0  0  0  0  0  0  0  0  0  0  0  0
    9.0554  -24.8637  -15.5229 C   0  0  0  0  0  0  0  0  0  0  0  0
   10.4893  -25.2405  -15.7736 C   0  0  0  0  0  0  0  0  0  0  0  0
   11.1128  -26.2905  -15.1920 C   0  0  0  0  0  0  0  0  0  0  0  0
   10.4708  -27.1132  -14.0630 C   0  0  0  0  0  0  0  0  0  0  0  0
   10.8328  -28.6174  -14.2694 C   0  0  0  0  0  0  0  0  0  0  0  0
   12.3201  -28.8631  -14.5625 C   0  0  0  0  0  0  0  0  0  0  0  0
   12.7758  -28.0748  -15.7967 C   0  0  0  0  0  0  0  0  0  0  0  0
   12.5544  -26.5762  -15.5737 C   0  0  0  0  0  0  0  0  0  0  0  0
   11.0610  -26.6241  -12.7117 C   0  0  0  0  0  0  0  0  0  0  0  0
   14.1570  -28.2952  -16.0073 O   0  0  0  0  0  0  0  0  0  0  0  0
   14.3876  -29.5216  -17.1596 S   0  0  0  0  0  0  0  0  0  0  0  0
   13.9351  -29.0414  -18.5096 O   0  0  0  0  0  0  0  0  0  0  0  0
   13.6217  -30.7582  -16.7803 O   0  0  0  0  0  0  0  0  0  0  0  0
   16.0241  -29.8934  -17.2369 O   0  0  0  0  0  0  0  0  0  0  0  0
   16.2915  -30.0579  -16.2981 H   0  0  0  0  0  0  0  0  0  0  0  0
  1  2  1  0  0  0
  2  3  1  0  0  0
  2  7  1  0  0  0
  2 10  1  0  0  0
  3  4  1  0  0  0
  4  5  1  0  0  0
  5  6  1  0  0  0
  5 15  1  0  0  0
  6  7  1  0  0  0
  6 12  1  0  0  0
  7  8  1  0  0  0
  8  9  1  0  0  0
  9 10  1  0  0  0
 10 11  2  0  0  0
 12 13  1  0  0  0
 13 14  2  0  0  0
 14 15  1  0  0  0
 14 19  1  0  0  0
 15 16  1  0  0  0
 15 20  1  0  0  0
 16 17  1  0  0  0
 17 18  1  0  0  0
 18 19  1  0  0  0
 18 21  1  0  0  0
 21 22  1  0  0  0
 22 23  2  0  0  0
 22 24  2  0  0  0
 22 25  1  0  0  0
 25 26  1  0  0  0
M  END
> <COMPND>
    ../0-casp/nT856Q.pdb 

> <AUTHOR>
    GENERATED BY OPEN BABEL 3.1.0

> <MASTER>
        0    0    0    0    0    0    0    0   53    0   53    0

> <minimizedAffinity>
-7.64055

> <CNNscore>
0.8306472301

> <CNNaffinity>
5.7815542221

> <CNN_VS>
4.8024320602

> <CNNaffinity_variance>
0.2966552377

$$$$



 26 29  0  0  0  0  0  0  0  0999 V2000
   -7.9122  -17.2560   -5.8727 C   0  0  0  0  0  0  0  0  0  0  0  0
   -6.5296  -17.7294   -6.4026 C   0  0  0  0  0  0  0  0  0  0  0  0
   -6.3955  -17.4791   -7.9164 C   0  0  0  0  0  0  0  0  0  0  0  0
   -7.3763  -18.3848   -8.7047 C   0  0  0  0  0  0  0  0  0  0  0  0
   -7.3077  -19.9025   -8.3066 C   0  0  0  0  0  0  0  0  0  0  0  0
   -7.2757  -20.1386   -6.7624 C   0  0  0  0  0  0  0  0  0  0  0  0
   -6.2129  -19.2075   -6.1535 C   0  0  0  0  0  0  0  0  0  0  0  0
   -5.8607  -19.3007   -4.6675 C   0  0  0  0  0  0  0  0  0  0  0  0
   -5.0722  -18.0038   -4.4118 C   0  0  0  0  0  0  0  0  0  0  0  0
   -5.4912  -17.1021   -5.5330 C   0  0  0  0  0  0  0  0  0  0  0  0
   -5.0704  -15.9647   -5.6791 O   0  0  0  0  0  0  0  0  0  0  0  0
   -6.9409  -21.6094   -6.4681 C   0  0  0  0  0  0  0  0  0  0  0  0
   -7.6966  -22.5790   -7.3340 C   0  0  0  0  0  0  0  0  0  0  0  0
   -8.2862  -22.2521   -8.5064 C   0  0  0  0  0  0  0  0  0  0  0  0
   -8.4041  -20.7999   -8.9977 C   0  0  0  0  0  0  0  0  0  0  0  0
   -8.1763  -20.7720  -10.5415 C   0  0  0  0  0  0  0  0  0  0  0  0
   -8.9711  -21.8411  -11.3055 C   0  0  0  0  0  0  0  0  0  0  0  0
   -8.6435  -23.2467  -10.7864 C   0  0  0  0  0  0  0  0  0  0  0  0
   -8.9802  -23.3477   -9.2962 C   0  0  0  0  0  0  0  0  0  0  0  0
   -9.8396  -20.2969   -8.6815 C   0  0  0  0  0  0  0  0  0  0  0  0
   -9.4247  -24.1962  -11.4856 O   0  0  0  0  0  0  0  0  0  0  0  0
   -8.4329  -25.4196  -12.1217 S   0  0  0  0  0  0  0  0  0  0  0  0
   -8.0481  -26.3793  -11.0314 O   0  0  0  0  0  0  0  0  0  0  0  0
   -7.1942  -24.8326  -12.7387 O   0  0  0  0  0  0  0  0  0  0  0  0
   -9.2893  -26.2544  -13.3016 O   0  0  0  0  0  0  0  0  0  0  0  0
   -9.6370  -25.5526  -13.9069 H   0  0  0  0  0  0  0  0  0  0  0  0
  1  2  1  0  0  0
  2  3  1  0  0  0
  2  7  1  0  0  0
  2 10  1  0  0  0
  3  4  1  0  0  0
  4  5  1  0  0  0
  5  6  1  0  0  0
  5 15  1  0  0  0
  6  7  1  0  0  0
  6 12  1  0  0  0
  7  8  1  0  0  0
  8  9  1  0  0  0
  9 10  1  0  0  0
 10 11  2  0  0  0
 12 13  1  0  0  0
 13 14  2  0  0  0
 14 15  1  0  0  0
 14 19  1  0  0  0
 15 16  1  0  0  0
 15 20  1  0  0  0
 16 17  1  0  0  0
 17 18  1  0  0  0
 18 19  1  0  0  0
 18 21  1  0  0  0
 21 22  1  0  0  0
 22 23  2  0  0  0
 22 24  2  0  0  0
 22 25  1  0  0  0
 25 26  1  0  0  0
M  END
> <COMPND>
    ../0-casp/nT856Q.pdb 

> <AUTHOR>
    GENERATED BY OPEN BABEL 3.1.0

> <MASTER>
        0    0    0    0    0    0    0    0   53    0   53    0

> <minimizedAffinity>
-6.37786

> <CNNscore>
0.7782765627

> <CNNaffinity>
5.3270635605

> <CNN_VS>
4.1459288597

> <CNNaffinity_variance>
0.0105671380

$$$$



 26 29  0  0  0  0  0  0  0  0999 V2000
   20.3549   -7.2055    2.7220 C   0  0  0  0  0  0  0  0  0  0  0  0
   18.8601   -7.1575    3.1463 C   0  0  0  0  0  0  0  0  0  0  0  0
   18.0442   -8.2594    2.4445 C   0  0  0  0  0  0  0  0  0  0  0  0
   17.9615   -7.9857    0.9208 C   0  0  0  0  0  0  0  0  0  0  0  0
   17.5015   -6.5291    0.5554 C   0  0  0  0  0  0  0  0  0  0  0  0
   18.2182   -5.4228    1.3943 C   0  0  0  0  0  0  0  0  0  0  0  0
   18.1540   -5.8246    2.8781 C   0  0  0  0  0  0  0  0  0  0  0  0
   18.6636   -4.8720    3.9616 C   0  0  0  0  0  0  0  0  0  0  0  0
   18.7595   -5.7742    5.2050 C   0  0  0  0  0  0  0  0  0  0  0  0
   18.8300   -7.1597    4.6385 C   0  0  0  0  0  0  0  0  0  0  0  0
   18.9115   -8.1672    5.3245 O   0  0  0  0  0  0  0  0  0  0  0  0
   17.5263   -4.0692    1.1686 C   0  0  0  0  0  0  0  0  0  0  0  0
   17.2104   -3.7931   -0.2753 C   0  0  0  0  0  0  0  0  0  0  0  0
   17.1411   -4.7444   -1.2342 C   0  0  0  0  0  0  0  0  0  0  0  0
   17.5596   -6.2028   -0.9858 C   0  0  0  0  0  0  0  0  0  0  0  0
   16.5671   -7.1449   -1.7366 C   0  0  0  0  0  0  0  0  0  0  0  0
   16.2940   -6.7277   -3.1891 C   0  0  0  0  0  0  0  0  0  0  0  0
   15.7563   -5.2929   -3.2582 C   0  0  0  0  0  0  0  0  0  0  0  0
   16.7693   -4.3225   -2.6447 C   0  0  0  0  0  0  0  0  0  0  0  0
   18.9894   -6.4008   -1.5604 C   0  0  0  0  0  0  0  0  0  0  0  0
   15.5577   -4.9338   -4.6118 O   0  0  0  0  0  0  0  0  0  0  0  0
   14.0270   -4.2259   -4.8137 S   0  0  0  0  0  0  0  0  0  0  0  0
   14.0569   -3.2747   -5.9766 O   0  0  0  0  0  0  0  0  0  0  0  0
   13.6132   -3.4903   -3.5697 O   0  0  0  0  0  0  0  0  0  0  0  0
   12.9064   -5.4364   -5.1320 O   0  0  0  0  0  0  0  0  0  0  0  0
   13.0387   -6.1007   -4.4101 H   0  0  0  0  0  0  0  0  0  0  0  0
  1  2  1  0  0  0
  2  3  1  0  0  0
  2  7  1  0  0  0
  2 10  1  0  0  0
  3  4  1  0  0  0
  4  5  1  0  0  0
  5  6  1  0  0  0
  5 15  1  0  0  0
  6  7  1  0  0  0
  6 12  1  0  0  0
  7  8  1  0  0  0
  8  9  1  0  0  0
  9 10  1  0  0  0
 10 11  2  0  0  0
 12 13  1  0  0  0
 13 14  2  0  0  0
 14 15  1  0  0  0
 14 19  1  0  0  0
 15 16  1  0  0  0
 15 20  1  0  0  0
 16 17  1  0  0  0
 17 18  1  0  0  0
 18 19  1  0  0  0
 18 21  1  0  0  0
 21 22  1  0  0  0
 22 23  2  0  0  0
 22 24  2  0  0  0
 22 25  1  0  0  0
 25 26  1  0  0  0
M  END
> <COMPND>
    ../0-casp/nT856Q.pdb 

> <AUTHOR>
    GENERATED BY OPEN BABEL 3.1.0

> <MASTER>
        0    0    0    0    0    0    0    0   53    0   53    0

> <minimizedAffinity>
-5.78501

> <CNNscore>
0.7165679932

> <CNNaffinity>
5.3499917984

> <CNN_VS>
3.8336329460

> <CNNaffinity_variance>
0.1594309360

$$$$



 26 29  0  0  0  0  0  0  0  0999 V2000
  -15.5438    1.5444    9.0775 C   0  0  0  0  0  0  0  0  0  0  0  0
  -15.2214    2.8748    9.8143 C   0  0  0  0  0  0  0  0  0  0  0  0
  -13.7368    3.2540    9.6594 C   0  0  0  0  0  0  0  0  0  0  0  0
  -12.8366    2.2381   10.4085 C   0  0  0  0  0  0  0  0  0  0  0  0
  -13.2693    1.9725   11.8947 C   0  0  0  0  0  0  0  0  0  0  0  0
  -14.8070    1.7535   12.0640 C   0  0  0  0  0  0  0  0  0  0  0  0
  -15.5405    2.8780   11.3127 C   0  0  0  0  0  0  0  0  0  0  0  0
  -17.0627    3.0048   11.4016 C   0  0  0  0  0  0  0  0  0  0  0  0
  -17.4012    3.9769   10.2573 C   0  0  0  0  0  0  0  0  0  0  0  0
  -16.2155    3.8848    9.3456 C   0  0  0  0  0  0  0  0  0  0  0  0
  -16.1079    4.5233    8.3098 O   0  0  0  0  0  0  0  0  0  0  0  0
  -15.1733    1.7697   13.5565 C   0  0  0  0  0  0  0  0  0  0  0  0
  -14.2290    0.9715   14.4122 C   0  0  0  0  0  0  0  0  0  0  0  0
  -12.9796    0.6145   14.0370 C   0  0  0  0  0  0  0  0  0  0  0  0
  -12.4490    0.8324   12.6105 C   0  0  0  0  0  0  0  0  0  0  0  0
  -10.9519    1.2661   12.6923 C   0  0  0  0  0  0  0  0  0  0  0  0
  -10.1050    0.3979   13.6343 C   0  0  0  0  0  0  0  0  0  0  0  0
  -10.6916    0.3891   15.0514 C   0  0  0  0  0  0  0  0  0  0  0  0
  -12.1217   -0.1570   15.0242 C   0  0  0  0  0  0  0  0  0  0  0  0
  -12.5518   -0.5153   11.8446 C   0  0  0  0  0  0  0  0  0  0  0  0
   -9.9083   -0.4526   15.8754 O   0  0  0  0  0  0  0  0  0  0  0  0
   -8.8349    0.4738   16.8106 S   0  0  0  0  0  0  0  0  0  0  0  0
   -9.4580    1.8030   17.1312 O   0  0  0  0  0  0  0  0  0  0  0  0
   -7.5394    0.6865   16.0782 O   0  0  0  0  0  0  0  0  0  0  0  0
   -8.5244   -0.3402   18.2470 O   0  0  0  0  0  0  0  0  0  0  0  0
   -8.2578   -1.2522   17.9692 H   0  0  0  0  0  0  0  0  0  0  0  0
  1  2  1  0  0  0
  2  3  1  0  0  0
  2  7  1  0  0  0
  2 10  1  0  0  0
  3  4  1  0  0  0
  4  5  1  0  0  0
  5  6  1  0  0  0
  5 15  1  0  0  0
  6  7  1  0  0  0
  6 12  1  0  0  0
  7  8  1  0  0  0
  8  9  1  0  0  0
  9 10  1  0  0  0
 10 11  2  0  0  0
 12 13  1  0  0  0
 13 14  2  0  0  0
 14 15  1  0  0  0
 14 19  1  0  0  0
 15 16  1  0  0  0
 15 20  1  0  0  0
 16 17  1  0  0  0
 17 18  1  0  0  0
 18 19  1  0  0  0
 18 21  1  0  0  0
 21 22  1  0  0  0
 22 23  2  0  0  0
 22 24  2  0  0  0
 22 25  1  0  0  0
 25 26  1  0  0  0
M  END
> <COMPND>
    ../0-casp/nT856Q.pdb 

> <AUTHOR>
    GENERATED BY OPEN BABEL 3.1.0

> <MASTER>
        0    0    0    0    0    0    0    0   53    0   53    0

> <minimizedAffinity>
-7.75637

> <CNNscore>
0.6825779676

> <CNNaffinity>
5.6725578308

> <CNN_VS>
3.8719630241

> <CNNaffinity_variance>
0.0727029890

$$$$



 26 29  0  0  0  0  0  0  0  0999 V2000
    3.5366  -27.7414  -16.8622 C   0  0  0  0  0  0  0  0  0  0  0  0
    3.1064  -26.5900  -15.9104 C   0  0  0  0  0  0  0  0  0  0  0  0
    3.9097  -25.3055  -16.1882 C   0  0  0  0  0  0  0  0  0  0  0  0
    5.3996  -25.5051  -15.8088 C   0  0  0  0  0  0  0  0  0  0  0  0
    5.6213  -26.0899  -14.3682 C   0  0  0  0  0  0  0  0  0  0  0  0
    4.6808  -27.2922  -14.0346 C   0  0  0  0  0  0  0  0  0  0  0  0
    3.2428  -26.9007  -14.4165 C   0  0  0  0  0  0  0  0  0  0  0  0
    2.0733  -27.8312  -14.0887 C   0  0  0  0  0  0  0  0  0  0  0  0
    0.9232  -27.2621  -14.9388 C   0  0  0  0  0  0  0  0  0  0  0  0
    1.6213  -26.4763  -16.0069 C   0  0  0  0  0  0  0  0  0  0  0  0
    1.0363  -25.8629  -16.8864 O   0  0  0  0  0  0  0  0  0  0  0  0
    4.7730  -27.6245  -12.5369 C   0  0  0  0  0  0  0  0  0  0  0  0
    6.1827  -27.6404  -12.0141 C   0  0  0  0  0  0  0  0  0  0  0  0
    7.2289  -27.0438  -12.6294 C   0  0  0  0  0  0  0  0  0  0  0  0
    7.1238  -26.4326  -14.0362 C   0  0  0  0  0  0  0  0  0  0  0  0
    7.9600  -25.1153  -14.0753 C   0  0  0  0  0  0  0  0  0  0  0  0
    9.3648  -25.2539  -13.4703 C   0  0  0  0  0  0  0  0  0  0  0  0
    9.2935  -25.7471  -12.0198 C   0  0  0  0  0  0  0  0  0  0  0  0
    8.5911  -27.1064  -11.9614 C   0  0  0  0  0  0  0  0  0  0  0  0
    7.7180  -27.4480  -15.0508 C   0  0  0  0  0  0  0  0  0  0  0  0
   10.6055  -25.9008  -11.5142 O   0  0  0  0  0  0  0  0  0  0  0  0
   10.8671  -24.8293  -10.2225 S   0  0  0  0  0  0  0  0  0  0  0  0
    9.7033  -24.8844   -9.2736 O   0  0  0  0  0  0  0  0  0  0  0  0
   11.0432  -23.4236  -10.7253 O   0  0  0  0  0  0  0  0  0  0  0  0
   12.2575  -25.2957   -9.4030 O   0  0  0  0  0  0  0  0  0  0  0  0
   12.9494  -25.3814  -10.1057 H   0  0  0  0  0  0  0  0  0  0  0  0
  1  2  1  0  0  0
  2  3  1  0  0  0
  2  7  1  0  0  0
  2 10  1  0  0  0
  3  4  1  0  0  0
  4  5  1  0  0  0
  5  6  1  0  0  0
  5 15  1  0  0  0
  6  7  1  0  0  0
  6 12  1  0  0  0
  7  8  1  0  0  0
  8  9  1  0  0  0
  9 10  1  0  0  0
 10 11  2  0  0  0
 12 13  1  0  0  0
 13 14  2  0  0  0
 14 15  1  0  0  0
 14 19  1  0  0  0
 15 16  1  0  0  0
 15 20  1  0  0  0
 16 17  1  0  0  0
 17 18  1  0  0  0
 18 19  1  0  0  0
 18 21  1  0  0  0
 21 22  1  0  0  0
 22 23  2  0  0  0
 22 24  2  0  0  0
 22 25  1  0  0  0
 25 26  1  0  0  0
M  END
> <COMPND>
    ../0-casp/nT856Q.pdb 

> <AUTHOR>
    GENERATED BY OPEN BABEL 3.1.0

> <MASTER>
        0    0    0    0    0    0    0    0   53    0   53    0

> <minimizedAffinity>
-7.20175

> <CNNscore>
0.6488569379

> <CNNaffinity>
5.7571535110

> <CNN_VS>
3.7355690002

> <CNNaffinity_variance>
0.2410793602

$$$$



 26 29  0  0  0  0  0  0  0  0999 V2000
   -6.8426  -17.2785   -7.5828 C   0  0  0  0  0  0  0  0  0  0  0  0
   -7.5403  -16.6959   -6.3217 C   0  0  0  0  0  0  0  0  0  0  0  0
   -8.5268  -15.5742   -6.6965 C   0  0  0  0  0  0  0  0  0  0  0  0
   -7.7635  -14.3423   -7.2473 C   0  0  0  0  0  0  0  0  0  0  0  0
   -6.5781  -13.8627   -6.3354 C   0  0  0  0  0  0  0  0  0  0  0  0
   -5.6772  -15.0316   -5.8222 C   0  0  0  0  0  0  0  0  0  0  0  0
   -6.5909  -16.1338   -5.2588 C   0  0  0  0  0  0  0  0  0  0  0  0
   -5.9908  -17.3581   -4.5645 C   0  0  0  0  0  0  0  0  0  0  0  0
   -7.1753  -18.3387   -4.4966 C   0  0  0  0  0  0  0  0  0  0  0  0
   -8.1068  -17.8506   -5.5643 C   0  0  0  0  0  0  0  0  0  0  0  0
   -9.1792  -18.3774   -5.8184 O   0  0  0  0  0  0  0  0  0  0  0  0
   -4.7205  -14.5128   -4.7370 C   0  0  0  0  0  0  0  0  0  0  0  0
   -4.0754  -13.2005   -5.0870 C   0  0  0  0  0  0  0  0  0  0  0  0
   -4.5495  -12.3449   -6.0210 C   0  0  0  0  0  0  0  0  0  0  0  0
   -5.7092  -12.7070   -6.9633 C   0  0  0  0  0  0  0  0  0  0  0  0
   -6.6114  -11.4480   -7.1560 C   0  0  0  0  0  0  0  0  0  0  0  0
   -5.8273  -10.1640   -7.4643 C   0  0  0  0  0  0  0  0  0  0  0  0
   -4.8004   -9.8682   -6.3642 C   0  0  0  0  0  0  0  0  0  0  0  0
   -3.8154  -11.0336   -6.2383 C   0  0  0  0  0  0  0  0  0  0  0  0
   -5.1075  -13.1219   -8.3342 C   0  0  0  0  0  0  0  0  0  0  0  0
   -4.0730   -8.7041   -6.7057 O   0  0  0  0  0  0  0  0  0  0  0  0
   -3.6418   -7.8479   -5.3036 S   0  0  0  0  0  0  0  0  0  0  0  0
   -3.7952   -6.3723   -5.5425 O   0  0  0  0  0  0  0  0  0  0  0  0
   -2.2228   -8.1514   -4.9108 O   0  0  0  0  0  0  0  0  0  0  0  0
   -4.6657   -8.3040   -4.0522 O   0  0  0  0  0  0  0  0  0  0  0  0
   -4.6299   -9.2932   -4.0428 H   0  0  0  0  0  0  0  0  0  0  0  0
  1  2  1  0  0  0
  2  3  1  0  0  0
  2  7  1  0  0  0
  2 10  1  0  0  0
  3  4  1  0  0  0
  4  5  1  0  0  0
  5  6  1  0  0  0
  5 15  1  0  0  0
  6  7  1  0  0  0
  6 12  1  0  0  0
  7  8  1  0  0  0
  8  9  1  0  0  0
  9 10  1  0  0  0
 10 11  2  0  0  0
 12 13  1  0  0  0
 13 14  2  0  0  0
 14 15  1  0  0  0
 14 19  1  0  0  0
 15 16  1  0  0  0
 15 20  1  0  0  0
 16 17  1  0  0  0
 17 18  1  0  0  0
 18 19  1  0  0  0
 18 21  1  0  0  0
 21 22  1  0  0  0
 22 23  2  0  0  0
 22 24  2  0  0  0
 22 25  1  0  0  0
 25 26  1  0  0  0
M  END
> <COMPND>
    ../0-casp/nT856Q.pdb 

> <AUTHOR>
    GENERATED BY OPEN BABEL 3.1.0

> <MASTER>
        0    0    0    0    0    0    0    0   53    0   53    0

> <minimizedAffinity>
-6.36129

> <CNNscore>
0.6298565865

> <CNNaffinity>
5.0014686584

> <CNN_VS>
3.1502079964

> <CNNaffinity_variance>
0.1406867951

$$$$



 26 29  0  0  0  0  0  0  0  0999 V2000
   -0.5976   -8.8046   36.8627 C   0  0  0  0  0  0  0  0  0  0  0  0
    0.2740   -7.7861   37.6497 C   0  0  0  0  0  0  0  0  0  0  0  0
    0.2273   -8.0631   39.1640 C   0  0  0  0  0  0  0  0  0  0  0  0
   -1.1910   -7.7818   39.7233 C   0  0  0  0  0  0  0  0  0  0  0  0
   -1.7729   -6.3802   39.3191 C   0  0  0  0  0  0  0  0  0  0  0  0
   -1.5707   -6.0361   37.8085 C   0  0  0  0  0  0  0  0  0  0  0  0
   -0.1029   -6.3157   37.4418 C   0  0  0  0  0  0  0  0  0  0  0  0
    0.4320   -5.9535   36.0548 C   0  0  0  0  0  0  0  0  0  0  0  0
    1.7702   -6.7108   35.9861 C   0  0  0  0  0  0  0  0  0  0  0  0
    1.6259   -7.7887   37.0171 C   0  0  0  0  0  0  0  0  0  0  0  0
    2.4975   -8.6077   37.2655 O   0  0  0  0  0  0  0  0  0  0  0  0
   -1.9201   -4.5602   37.5601 C   0  0  0  0  0  0  0  0  0  0  0  0
   -3.1888   -4.1241   38.2392 C   0  0  0  0  0  0  0  0  0  0  0  0
   -3.7603   -4.7783   39.2758 C   0  0  0  0  0  0  0  0  0  0  0  0
   -3.2691   -6.1523   39.7602 C   0  0  0  0  0  0  0  0  0  0  0  0
   -3.3451   -6.1920   41.3186 C   0  0  0  0  0  0  0  0  0  0  0  0
   -4.6755   -5.6782   41.8883 C   0  0  0  0  0  0  0  0  0  0  0  0
   -4.9587   -4.2456   41.4194 C   0  0  0  0  0  0  0  0  0  0  0  0
   -5.0210   -4.1963   39.8904 C   0  0  0  0  0  0  0  0  0  0  0  0
   -4.2119   -7.2383   39.1725 C   0  0  0  0  0  0  0  0  0  0  0  0
   -6.2091   -3.8260   41.9306 O   0  0  0  0  0  0  0  0  0  0  0  0
   -6.0228   -2.4111   42.8516 S   0  0  0  0  0  0  0  0  0  0  0  0
   -5.3090   -1.3673   42.0399 O   0  0  0  0  0  0  0  0  0  0  0  0
   -5.2464   -2.6928   44.1076 O   0  0  0  0  0  0  0  0  0  0  0  0
   -7.5432   -1.8292   43.2668 O   0  0  0  0  0  0  0  0  0  0  0  0
   -8.0117   -2.6051   43.6648 H   0  0  0  0  0  0  0  0  0  0  0  0
  1  2  1  0  0  0
  2  3  1  0  0  0
  2  7  1  0  0  0
  2 10  1  0  0  0
  3  4  1  0  0  0
  4  5  1  0  0  0
  5  6  1  0  0  0
  5 15  1  0  0  0
  6  7  1  0  0  0
  6 12  1  0  0  0
  7  8  1  0  0  0
  8  9  1  0  0  0
  9 10  1  0  0  0
 10 11  2  0  0  0
 12 13  1  0  0  0
 13 14  2  0  0  0
 14 15  1  0  0  0
 14 19  1  0  0  0
 15 16  1  0  0  0
 15 20  1  0  0  0
 16 17  1  0  0  0
 17 18  1  0  0  0
 18 19  1  0  0  0
 18 21  1  0  0  0
 21 22  1  0  0  0
 22 23  2  0  0  0
 22 24  2  0  0  0
 22 25  1  0  0  0
 25 26  1  0  0  0
M  END
> <COMPND>
    ../0-casp/nT856Q.pdb 

> <AUTHOR>
    GENERATED BY OPEN BABEL 3.1.0

> <MASTER>
        0    0    0    0    0    0    0    0   53    0   53    0

> <minimizedAffinity>
-5.75959

> <CNNscore>
0.6272405386

> <CNNaffinity>
4.8961782455

> <CNN_VS>
3.0710813999

> <CNNaffinity_variance>
0.2276148796

$$$$



 26 29  0  0  0  0  0  0  0  0999 V2000
   -8.7894  -17.8246   -6.2331 C   0  0  0  0  0  0  0  0  0  0  0  0
   -7.2415  -17.7633   -6.3634 C   0  0  0  0  0  0  0  0  0  0  0  0
   -6.8179  -17.1259   -7.7000 C   0  0  0  0  0  0  0  0  0  0  0  0
   -7.2107  -18.0430   -8.8867 C   0  0  0  0  0  0  0  0  0  0  0  0
   -6.7488  -19.5352   -8.7237 C   0  0  0  0  0  0  0  0  0  0  0  0
   -7.0339  -20.1219   -7.3039 C   0  0  0  0  0  0  0  0  0  0  0  0
   -6.5293  -19.1154   -6.2553 C   0  0  0  0  0  0  0  0  0  0  0  0
   -6.5556  -19.4684   -4.7668 C   0  0  0  0  0  0  0  0  0  0  0  0
   -6.3313  -18.1093   -4.0799 C   0  0  0  0  0  0  0  0  0  0  0  0
   -6.7251  -17.1099   -5.1248 C   0  0  0  0  0  0  0  0  0  0  0  0
   -6.6806  -15.9010   -4.9549 O   0  0  0  0  0  0  0  0  0  0  0  0
   -6.3190  -21.4732   -7.1466 C   0  0  0  0  0  0  0  0  0  0  0  0
   -6.4664  -22.3702   -8.3444 C   0  0  0  0  0  0  0  0  0  0  0  0
   -6.8127  -21.9398   -9.5790 C   0  0  0  0  0  0  0  0  0  0  0  0
   -7.2742  -20.4994   -9.8548 C   0  0  0  0  0  0  0  0  0  0  0  0
   -6.6843  -20.0365  -11.2237 C   0  0  0  0  0  0  0  0  0  0  0  0
   -6.8603  -21.0615  -12.3537 C   0  0  0  0  0  0  0  0  0  0  0  0
   -6.2305  -22.4086  -11.9782 C   0  0  0  0  0  0  0  0  0  0  0  0
   -6.8817  -22.9560  -10.7051 C   0  0  0  0  0  0  0  0  0  0  0  0
   -8.8256  -20.4953   -9.9368 C   0  0  0  0  0  0  0  0  0  0  0  0
   -6.4501  -23.3342  -13.0250 O   0  0  0  0  0  0  0  0  0  0  0  0
   -5.2323  -23.1921  -14.2005 S   0  0  0  0  0  0  0  0  0  0  0  0
   -5.7824  -22.5106  -15.4215 O   0  0  0  0  0  0  0  0  0  0  0  0
   -4.6952  -24.5451  -14.5757 O   0  0  0  0  0  0  0  0  0  0  0  0
   -3.9813  -22.2603  -13.5766 O   0  0  0  0  0  0  0  0  0  0  0  0
   -3.7641  -22.6778  -12.7058 H   0  0  0  0  0  0  0  0  0  0  0  0
  1  2  1  0  0  0
  2  3  1  0  0  0
  2  7  1  0  0  0
  2 10  1  0  0  0
  3  4  1  0  0  0
  4  5  1  0  0  0
  5  6  1  0  0  0
  5 15  1  0  0  0
  6  7  1  0  0  0
  6 12  1  0  0  0
  7  8  1  0  0  0
  8  9  1  0  0  0
  9 10  1  0  0  0
 10 11  2  0  0  0
 12 13  1  0  0  0
 13 14  2  0  0  0
 14 15  1  0  0  0
 14 19  1  0  0  0
 15 16  1  0  0  0
 15 20  1  0  0  0
 16 17  1  0  0  0
 17 18  1  0  0  0
 18 19  1  0  0  0
 18 21  1  0  0  0
 21 22  1  0  0  0
 22 23  2  0  0  0
 22 24  2  0  0  0
 22 25  1  0  0  0
 25 26  1  0  0  0
M  END
> <COMPND>
    ../0-casp/nT856Q.pdb 

> <AUTHOR>
    GENERATED BY OPEN BABEL 3.1.0

> <MASTER>
        0    0    0    0    0    0    0    0   53    0   53    0

> <minimizedAffinity>
-6.19599

> <CNNscore>
0.5944771171

> <CNNaffinity>
4.9157137871

> <CNN_VS>
2.9222793579

> <CNNaffinity_variance>
0.0253431350

$$$$
